21
C16H11N3O2 (ABAQ)
C	-0.0743	-1.5066	0
C	0.6816	-1.1762	0
C	0.7734	-0.3563	0
C	1.5294	-0.0259	0
N	1.6212	0.794	0
C	2.3772	1.1244	0
C	3.0413	0.6349	0
C	2.9495	-0.185	0
C	3.6791	-0.57	0
C	4.3041	-0.0315	0
C	5.083	-0.3034	0
C	5.2369	-1.114	0
C	4.6119	-1.6525	0
C	3.833	-1.3805	0
N	3.2953	-2.0062	0
C	2.4708	-1.9759	0
O	2.0858	-2.7055	0
C	1.9805	-1.3124	0
C	1.3457	-1.6657	0
O	1.2932	-2.489	0
C	2.1935	-0.5154	0
