24
C6H12O6 (Inositol)
C	-1.282	0.740	0.255
C	0.000	-1.480	0.255
C	1.282	0.740	0.255
C	0.000	1.480	-0.255
C	-1.282	-0.740	-0.255
C	1.282	-0.740	-0.255
O	-2.486	1.435	-0.086
O	0.000	-2.870	-0.086
O	2.486	1.435	-0.086
O	0.000	2.870	0.086
O	-2.486	-1.435	0.086
O	2.486	-1.435	0.086
H	-1.258	0.726	1.351
H	0.000	-1.452	1.351
H	1.258	0.726	1.351
H	0.000	1.452	-1.351
H	-1.258	-0.726	-1.351
H	1.258	-0.726	-1.351
H	-2.497	1.442	-1.077
H	0.000	-2.883	-1.077
H	2.497	1.442	-1.077
H	0.000	2.883	1.077
H	-2.497	-1.442	1.077
H	2.497	-1.442	1.077



