18
Naphthalene
C	0	1.253	1.395
C	0	2.421	0.713
C	0	2.421	-0.713
C	0	1.253	-1.395
C	0	-1.253	-1.395
C	0	-2.421	-0.713
C	0	-2.421	0.713
C	0	-1.253	1.395
C	0	0	0.702
C	0	0	-0.702
H	0	1.244	2.478
H	0	3.367	1.24
H	0	3.367	-1.24
H	0	1.244	-2.478
H	0	-1.244	-2.478
H	0	-3.367	-1.24
H	0	-3.367	1.24
H	0	-1.244	2.478

