20
Nitroglycerin (C3H5N3O9)
O          0.04240       -1.35690        0.41100
O          2.48960       -0.19380       -0.17710
O         -1.52720        0.95430        0.27260
O         -1.14300       -2.63290       -0.94570
O         -1.54540       -2.75610        1.24400
O          3.30330        1.83820        0.14420
O         -3.29650        1.50030       -0.93790
O          4.68900        0.10020        0.31970
O         -3.14900        2.28970        1.14220
N         -0.97240       -2.33400        0.23690
N          3.59930        0.64290        0.12290
N         -2.76400        1.64650        0.16310
C          0.16440       -0.46580       -0.70000
C          1.27870        0.52450       -0.38810
C         -1.16920        0.24290       -0.90770
H          0.46190       -1.02910       -1.59430
H          1.03150        1.07530        0.52840
H          1.38880        1.22050       -1.22910
H         -1.97070       -0.45130       -1.17760
H         -1.04710        0.95270       -1.73720
