20
C6H8O6 (Vitamin C)
O	-0.0162	1.3423	0.0094
C	0.0021	-0.0041	0.002
C	1.3367	1.8086	-0.001
O	-0.985	-0.7154	0.007
C	1.379	-0.4842	-0.0137
C	2.2103	0.576	-0.016
C	1.5931	2.6496	-1.2532
O	1.7623	-1.7919	-0.0244
O	3.5606	0.5433	-0.029
O	1.4429	1.8316	-2.4153
C	0.5886	3.8025	-1.3077
O	0.9003	4.6539	-2.4122
H	1.5364	2.3982	0.8938
H	2.6058	3.0513	-1.22
H	1.0252	-2.4179	-0.0211
H	3.9324	-0.3493	-0.0374
H	0.5638	1.44	-2.5096
H	-0.4177	3.4021	-1.4303
H	0.6417	4.3747	-0.3815
H	0.3029	5.4082	-2.5082


