171
Amino Acids (C56H83N15O17) The 3D optimized structure was obtained using the UFF method in Avogadro.
O          5.04426       10.19641        7.78156
O          0.36958       12.06669       10.11810
O          7.85146       13.52418        9.60129
O          0.98651        6.91195        7.82626
O          0.88396        5.30927        4.98629
O         -1.86897        9.87470        7.03091
O          1.71213        7.32978        3.34016
O          7.95350       16.36143        5.23482
O         -3.03848        9.20524        2.67126
O          5.16639       17.15921       12.13084
O         -2.08227       11.06233       -1.36923
O         -1.28250        9.43202       -2.63098
O          3.77645       18.93473        8.16828
O          9.05249       20.05213        7.08086
O         -3.29306        3.61165       -3.29896
O          2.81196       21.81799        6.42296
O          2.70494       20.22663        4.88044
N          3.03324       10.95210        8.32310
N          6.12883       12.71968        8.47362
N          0.01039       10.30833        8.80834
N          7.35660       15.61246        7.22788
N         -0.87888        8.47284        5.62241
N          0.28788        8.90487        2.75916
N         -2.05203        9.00504        0.69902
N          0.97246       12.70122       -0.57994
N          4.96136       17.70115        6.74137
N          7.00710       15.95742       11.82360
N          6.84064       20.07062        7.29693
N          7.33964       20.71766        4.23691
N         10.07273       24.41445        4.64822
N         10.94119       22.77484        3.13498
N         10.18626       24.97649        2.38851
C          5.22222       12.70169        6.07503
C          4.93236       12.57099        7.61702
C          1.96871       11.94779        8.40861
C          1.54142       12.44964        7.00435
C          6.67884       12.40550        5.62254
C          0.51971       13.61954        7.02432
C          4.32011       11.17374        7.89929
C          4.79936       14.07961        5.55708
C          0.73921       11.42034        9.14740
C          6.76224       15.29057        8.54093
C          6.91393       13.78825        8.85853
C          7.16918       10.98503        5.88490
C          1.08197       14.88231        7.70018
C          0.09557       13.96176        5.59094
C          0.30492        9.30606        7.77919
C          5.40136       15.84172        8.97727
C          0.21357        7.66409        5.09808
C         -0.86617        9.22085        6.77701
C         -0.79480        9.87075        2.82962
C          4.95751       15.53505       10.42874
C          0.53463        7.99471        8.58241
C         -0.31928       11.34127        2.61187
C         -0.22086        6.16471        5.17368
C          0.74448        7.99619        3.68296
C          0.46582       11.72026        1.38378
C          7.12480       16.43612        6.13329
C         -2.01206        9.36800        2.02472
C          1.76542       11.37410        1.03743
C         -1.37964        5.80210        4.21854
C          2.02656       11.97742       -0.16887
C          5.72976       16.27235       11.50613
C          0.02292       12.56634        0.37165
C          6.02263       17.45592        5.79423
C         -0.98398        9.10533       -0.28422
C          2.73636       10.60512        1.68610
C         -0.38599        7.71102       -0.61910
C          3.25162       11.83041       -0.81783
C          3.98141       10.43990        1.05462
C          4.23630       11.04518       -0.19400
C          5.39564       20.22154        7.03701
C         -1.22810        6.65771       -1.32903
C         -1.45473        9.87645       -1.50618
C          4.68069       18.90090        7.34510
C          4.89802       20.69774        5.64437
C          8.10100       21.27593        5.34874
C         -2.55751        6.84443       -1.76538
C         -0.61462        5.41493       -1.57503
C          7.76277       22.76691        5.61906
C          7.98600       20.42628        6.61166
C          8.78643       23.49515        6.51734
C         -3.24169        5.81661       -2.42353
C         -1.30081        4.39039       -2.23220
C         -2.61869        4.58883       -2.65958
C          3.39905       20.89678        5.62853
C         10.17781       23.65185        5.88086
C         10.39701       24.05481        3.44440
H          4.54655       12.01133        5.52027
H          4.16362       13.29823        7.91698
H          2.36073       12.79425        9.00726
H          2.42378       12.76778        6.43984
H          1.10287       11.61145        6.42808
H          6.73433       12.55740        4.52198
H          7.38318       13.12027        6.09240
H         -0.39455       13.30357        7.57228
H          2.81271        9.98655        8.60741
H          5.31975       14.84693        6.10628
H          4.99710       14.18214        4.46881
H          3.72588       14.28275        5.71248
H          6.43285       11.84037        8.92355
H          7.47714       15.79341        9.22659
H          6.48959       10.24752        5.40799
H          8.18351       10.86392        5.44948
H          7.25733       10.78178        6.96789
H          0.32651       15.69638        7.67133
H          1.31606       14.70421        8.76788
H          1.99954       15.23342        7.18249
H         -0.37821       13.07902        5.11665
H         -0.65323       14.78246        5.59435
H          0.97090       14.27773        4.98288
H          1.21588        9.57079        7.21963
H         -0.81668       10.11234        9.39699
H          5.42600       16.93983        8.91708
H          4.63105       15.39598        8.32776
H          1.09675        7.81646        5.73486
H          8.25061       15.10027        7.13382
H         -1.16234        9.95938        3.85256
H          3.90393       15.88906       10.49285
H          4.94045       14.44426       10.63649
H          1.27198        8.18715        9.39782
H         -0.40540        7.69725        9.09514
H         -1.22852       11.98007        2.66540
H          0.33179       11.62386        3.46617
H         -1.76895        8.44683        5.10429
H         -0.60142        5.96090        6.19675
H          0.78047        8.87486        1.85951
H         -1.64239        4.73042        4.34494
H         -2.28986        6.39495        4.43781
H         -1.09084        5.97149        3.15950
H         -0.94233       13.05194        0.33037
H          6.55921       18.38481        5.56744
H          5.54724       17.13478        4.84239
H         -0.16342        9.68482        0.13589
H         -2.94257        8.60484        0.37166
H          0.90198       13.26965       -1.45307
H          1.97344        7.00028        7.75644
H          2.55336       10.15091        2.64891
H          0.51420        7.88202       -1.25050
H         -0.03904        7.26492        0.33786
H          0.95438        5.07145        4.02541
H          3.44221       12.30981       -1.76926
H          4.33475       16.91383        6.93554
H          4.75057        9.84678        1.53190
H          5.19909       10.91204       -0.66979
H          5.03190       20.96990        7.77563
H          7.50323       15.18846       11.36163
H          7.49956       16.47163       12.56928
H          5.30704       21.66771        5.34913
H          5.14129       19.94579        4.86946
H          7.02330       19.58521        8.19124
H          9.15823       21.25828        5.01232
H         -3.08383        7.77211       -1.62224
H          0.40608        5.23846       -1.25717
H          7.70455       23.31717        4.65548
H          6.78679       22.86675        6.12399
H          8.39589       24.51743        6.71728
H          8.87533       22.97229        7.49369
H         -4.25988        5.97778       -2.75531
H         -0.80505        3.44424       -2.41042
H         -2.30782       11.41880       -0.50043
H          7.49051       21.30141        3.38212
H          7.69925       19.75904        4.02254
H         10.82365       24.21896        6.58386
H         10.65689       22.66819        5.75837
H         -2.89576        2.74887       -3.48549
H          3.32516       22.38678        7.01339
H         11.16770       22.54672        2.15587
H         11.12941       22.04787        3.83328
H          9.78681       25.90751        2.57679
H         10.42258       24.72420        1.41760
