140
Argipressin (C46H65N15O12S2) The 3D optimized structure was obtained using the UFF method in Avogadro.
S          4.69233        0.02478       -3.55541
S          6.71441        0.50263       -2.99069
O         -0.13939        2.76881       -0.92057
O          2.09514       -1.44577       -2.83015
O         -3.88192       -0.93091       -1.53062
O          1.96357        1.88375        1.57555
O          7.13930        1.15792        0.88067
O          2.27726        5.17877        0.03236
O          6.84799        4.33262       -3.39628
O         11.31591        3.36805       -1.17437
O         -5.43340        3.17967        1.67198
O          8.80127        3.63918       -5.60597
O          9.35553        5.03529        2.30173
O         16.09379        6.45004       -2.63364
N          0.35198       -0.04724       -2.86291
N         -1.30758        0.99538       -0.28831
N          2.12933        0.87675       -0.40377
N         -4.35218        0.39960        0.17303
N          5.03143        1.82231        0.63049
N          6.75817        3.50249       -1.34541
N         -3.08453       -3.22833        2.19796
N          9.57449        4.70466       -1.41748
N          9.38047        2.43730       -3.79699
N          1.78061        4.45544       -2.01444
N          7.92305        1.29269       -6.82560
N         -3.93248        3.36234        0.03659
N         -5.00705       -3.24591        0.76970
N         -3.75923       -5.27600        1.31269
N          9.08903        2.99758        3.16124
C         -0.32285        1.23544       -2.67942
C         -1.61548        1.11051       -3.49794
C         -1.18387        0.16874       -4.60342
C         -0.38173       -0.86406       -3.81900
C         -0.59282        1.68135       -1.23971
C          1.64323       -0.35648       -2.49844
C          2.58107        0.63196       -1.78092
C         -1.91079       -0.32804       -0.41410
C          4.04523        0.12879       -1.84247
C         -1.32508       -1.35128        0.59893
C         -3.44036       -0.29723       -0.58106
C         -1.66370       -1.23394        2.09628
C          2.59091        1.78615        0.52981
C          3.84375        2.67760        0.41836
C         -3.03715       -1.80427        2.48446
C          3.79973        3.59398       -0.84058
C          7.06412        3.34555        0.07833
C          6.38563        2.06990        0.56682
C         -4.12163        1.24722        1.32866
C          6.70976        4.55622        0.99315
C          7.43963        0.31195       -4.65291
C          2.55998        4.45071       -0.90785
C          8.38173        5.37148       -1.94257
C          7.58055        1.63758       -5.44003
C          7.28732        4.37119       -2.25501
C         10.55537        3.20932       -3.36789
C          7.10479        4.33039        2.46545
C          8.67236        6.34826       -3.10151
C         -4.53809        2.66050        1.02235
C         10.45847        3.78645       -1.94234
C          8.63174        2.63701       -4.92951
C         11.20796        4.16512       -4.41371
C         -3.92540       -3.87529        1.45259
C          7.55761        7.32001       -3.46928
C          8.59189        4.14203        2.63681
C         12.51586        4.76141       -3.93358
C          6.31136        7.38780       -2.80375
C          7.79248        8.20006       -4.54140
C         12.64567        6.15520       -3.79172
C         13.61864        3.94111       -3.63434
C          5.33970        8.30760       -3.20945
C          6.81669        9.11741       -4.94164
C          5.59113        9.17077       -4.27658
C         13.84884        6.71482       -3.35347
C         14.82143        4.50408       -3.19658
C         14.93979        5.89386       -3.05399
H          0.30775        2.00000       -3.18853
H         -2.39950        0.58330       -2.92852
H         -2.03872        2.08081       -3.83457
H         -2.00989       -0.25366       -5.21385
H         -0.48641        0.72267       -5.27320
H          0.26777       -1.44100       -4.51319
H         -1.05563       -1.56442       -3.28508
H          2.51724        1.56636       -2.36314
H         -1.37491        1.46418        0.62087
H         -1.54823       -0.76143       -1.35269
H          4.66941        0.87898       -1.38762
H          4.16771       -0.83940       -1.31186
H          1.31224        0.32698       -0.10471
H         -1.56527       -2.38458        0.26585
H         -0.22213       -1.25600        0.51391
H         -0.92073       -1.84712        2.65335
H         -1.53115       -0.18908        2.44090
H          3.83181        3.37484        1.28542
H         -3.16661       -1.67310        3.57942
H         -3.84137       -1.24888        2.00626
H          4.60910        4.33024       -0.81204
H          3.91406        3.02827       -1.77623
H         -5.34081        0.33004       -0.11800
H          4.81015        0.85384        0.91963
H          8.16055        3.18092        0.15106
H         -4.72992        0.86297        2.17615
H         -3.08853        1.23897        1.67415
H          7.21740        5.47396        0.66675
H          5.63032        4.77409        0.98512
H          6.78424       -0.38805       -5.21269
H          8.41515       -0.21407       -4.57930
H          8.02582        6.04083       -1.14338
H          6.08652        2.83683       -1.74509
H          6.58821        2.14244       -5.44644
H         11.34603        2.42803       -3.29934
H          6.79660        5.21647        3.06139
H          6.55105        3.45452        2.86647
H          9.56412        6.95589       -2.83460
H          8.85959        5.76767       -4.00565
H          9.76147        4.95504       -0.43235
H         11.41424        3.59623       -5.34692
H         10.55859        4.98870       -4.70307
H          9.18638        1.61079       -3.21812
H          2.01023        3.86949       -2.82954
H          0.94520        5.05745       -2.06175
H          7.18604        0.66884       -7.22843
H          7.92781        2.15443       -7.41838
H          6.06731        6.74252       -1.97320
H          8.73696        8.17331       -5.07156
H         -3.17962        2.94223       -0.52542
H         -4.22062        4.33035       -0.16919
H         11.81594        6.81297       -4.01843
H         13.55400        2.86641       -3.74258
H         -5.63727       -3.81698        0.18854
H         -5.21547       -2.24347        0.82534
H         -2.98752       -5.76213        1.79245
H         -4.40672       -5.82475        0.72878
H          8.46352        2.23179        3.45090
H         10.10592        2.87463        3.27676
H          4.38844        8.35029       -2.69430
H          7.01130        9.78716       -5.76934
H          4.83601        9.88107       -4.58791
H         13.93268        7.78926       -3.24778
H         15.66101        3.85883       -2.97042
H         16.87283        5.91815       -2.41764
