60
Cartesian coordinates of the LGGMG test molecule
N     0.65000     -8.43500      4.15600
C     1.21100     -7.59500      5.20900
C     2.38000     -8.26500      5.93600
O     2.40800     -9.47800      6.14900
C     0.08400     -7.15400      6.12900
C     0.43900     -6.03200      7.13000
C     1.32100     -4.90100      6.60500
C    -0.83800     -5.28600      7.36600
H    -0.24300     -8.88700      4.30600
H     1.59000     -6.68100      4.75700
H    -0.72200     -6.81600      5.48300
H    -0.31800     -8.01300      6.65500
H     0.83600     -6.43500      8.06200
H     1.14000     -3.97100      7.14800
H     1.10100     -4.72600      5.55600
H     2.35200     -5.15600      6.75700
H    -1.06000     -4.84200      6.39400
H    -0.68600     -4.52200      8.12900
H    -1.60200     -5.99500      7.66200
N     3.34700     -7.43300      6.32500
C     4.51400     -7.82900      7.12900
C     4.41900     -7.35700      8.58600
O     4.76100     -8.10900      9.50200
H     3.23700     -6.46000      6.05200
H     4.53100     -8.91000      7.19200
N     3.89200     -6.15300      8.80300
C     3.49700     -5.60800     10.10000
C     3.33300     -4.08700     10.05500
O     3.11500     -3.50100      8.99200
H     3.71300     -5.56400      8.00700
H     2.53600     -6.03700     10.39000
H     4.24200     -5.86700     10.85400
N     3.43300     -3.45000     11.22000
C     3.27500     -2.01500     11.41500
C     4.61200     -1.35300     11.77100
O     5.48000     -1.97700     12.39200
C     2.21300     -1.76300     12.49100
C     0.80100     -2.08200     11.98400
S     0.35100     -3.83700     11.95000
C    -1.25300     -3.71200     11.13100
H     3.58100     -3.98600     12.05700
H     2.91700     -1.57300     10.48600
H     2.43000     -2.34500     13.38900
H     2.25400     -0.71400     12.75500
H     0.07600     -1.56000     12.60700
H     0.71000     -1.69100     10.97400
H    -1.67300     -4.70900     10.99400
H    -1.93300     -3.11400     11.73800
H    -1.12200     -3.23900     10.15900
N     4.79400     -0.09800     11.36300
C     6.06800      0.61600     11.50200
C     6.39800      1.04500     12.92800
O     5.56400      1.58300     13.66200
H     4.03900      0.32800     10.83900
H     6.85600     -0.04600     11.15100
H     6.12500      1.49800     10.87800
O     7.53221      0.83109     13.25878
H     0.55086     -7.84768      3.32797
H     5.37228     -7.39801      6.65731
H     8.12477      0.41918     12.66115
