117
11966110
S         21.44810        2.62080        0.00000
P          5.35480        3.02240        0.00000
P          8.47520        1.78270        0.00000
P         10.19800        1.96070        0.00000
O          5.94050        0.01820        0.00000
O          4.68440        2.28050        0.00000
O          3.40260        0.52260        0.00000
O          7.66510        1.19630        0.00000
O          6.02520        3.76440        0.00000
O          4.61280        3.69290        0.00000
O          9.28520        2.36900        0.00000
O          6.09680        2.35200        0.00000
O         11.11090        1.55240        0.00000
O          9.06150        0.97260        0.00000
O          7.88880        2.59270        0.00000
O         13.84940        0.32750        0.00000
O         10.60630        2.87360        0.00000
O          9.78970        1.04790        0.00000
O         14.45380        2.90320        0.00000
O         17.89960        3.25940        0.00000
O         22.46380        1.21780        0.00000
N          4.67830       -1.23970        0.00000
N          4.67830       -2.84920        0.00000
N          2.86600       -1.04440        0.00000
N          2.00000       -2.54440        0.00000
N          2.86600       -4.04440        0.00000
N         15.46950        1.50020        0.00000
N         18.91520        1.85640        0.00000
C          4.99170        1.32890        0.00000
C          4.40260        0.52090        0.00000
C          5.94220        1.01820        0.00000
C          4.98890       -0.28920        0.00000
C          6.75230        1.60460        0.00000
C          3.73200       -1.54440        0.00000
C          5.26190       -2.04440        0.00000
C          3.73200       -2.54440        0.00000
C         12.83370        1.73050        0.00000
C          2.86600       -3.04440        0.00000
C         13.74660        1.32220        0.00000
C         11.92090        2.13880        0.00000
C         13.24210        2.64330        0.00000
C         12.42540        0.81760        0.00000
C          2.00000       -1.54440        0.00000
C         14.55660        1.90850        0.00000
C         16.27950        2.08660        0.00000
C         28.33960        3.33310        0.00000
C         27.52960        2.74670        0.00000
C         29.25240        2.92480        0.00000
C         26.61670        3.15500        0.00000
C         30.06250        3.51120        0.00000
C         25.80670        2.56860        0.00000
C         17.19230        1.67830        0.00000
C         30.97530        3.10280        0.00000
C         24.89390        2.97700        0.00000
C         18.00240        2.26470        0.00000
C         31.78540        3.68920        0.00000
C         24.08380        2.39060        0.00000
C         19.72520        2.44280        0.00000
C         23.17100        2.79890        0.00000
C         20.63810        2.03440        0.00000
C         22.36100        2.21250        0.00000
H          5.43090        1.76650        0.00000
H          4.12200        1.07380        0.00000
H          6.49420        0.73580        0.00000
H          5.42660       -0.72830        0.00000
H          7.09990        2.11800        0.00000
H          6.30700        2.03600        0.00000
H          3.09350        1.06010        0.00000
H          5.88190       -2.04440        0.00000
H         13.24440        0.95860        0.00000
H         12.26850        2.65220        0.00000
H         11.47570        2.57020        0.00000
H          5.83460        4.35440        0.00000
H          4.02280        3.50230        0.00000
H         13.80800        2.39020        0.00000
H         13.49520        3.20930        0.00000
H         12.67610        2.89650        0.00000
H         11.85950        1.07080        0.00000
H         12.17230        0.25170        0.00000
H         12.99140        0.56450        0.00000
H          1.46310       -1.23440        0.00000
H          8.80840        0.40670        0.00000
H          2.32910       -4.35440        0.00000
H          3.40300       -4.35440        0.00000
H         14.41540        0.07430        0.00000
H         15.53320        0.88350        0.00000
H         28.68720        3.84650        0.00000
H         27.89440        3.76450        0.00000
H         16.62710        2.60000        0.00000
H         15.83420        2.51810        0.00000
H         27.18200        2.23330        0.00000
H         27.97480        2.31520        0.00000
H         10.24280        3.37580        0.00000
H         28.90490        2.41140        0.00000
H         29.69770        2.49330        0.00000
H         26.96430        3.66840        0.00000
H         26.17150        3.58650        0.00000
H         30.41010        4.02450        0.00000
H         29.61720        3.94260        0.00000
H         25.45910        2.05520        0.00000
H         26.25190        2.13720        0.00000
H         16.84470        1.16490        0.00000
H         17.63760        1.24680        0.00000
H         30.62770        2.58940        0.00000
H         31.42060        2.67140        0.00000
H         25.24140        3.49040        0.00000
H         24.44860        3.40840        0.00000
H         32.14890        3.18700        0.00000
H         32.28760        4.05280        0.00000
H         31.42180        4.19140        0.00000
H         24.14760        1.77380        0.00000
H         18.97890        1.23960        0.00000
H         20.07280        2.95620        0.00000
H         19.28000        2.87420        0.00000
H         23.10720        3.41560        0.00000
H         20.29050        1.52100        0.00000
H         21.08330        1.60300        0.00000
