56
docosahexaenoic acid(DHA)(C22H32O2)
O	-3.7479	-2.7792	0.4882
O	-2.3738	-3.0111	-1.3071
C	-2.513	-0.1909	-1.8131
C	-1.1764	2.5209	-0.9409
C	-2.0031	1.5018	1.758
C	-0.8804	-1.2824	2.021
C	-3.5804	-0.937	-1.0169
C	-2.9526	1.1955	-2.1916
C	-2.3833	2.352	-1.8174
C	1.8815	-2.3594	-0.6125
C	-1.4629	3.4123	0.231
C	-1.8326	2.9576	1.438
C	-1.0853	1.0718	2.8652
C	4.459	-0.5303	-0.9467
C	-0.5866	-0.1682	2.9803
C	0.1014	-1.3198	0.8874
C	0.9023	-2.3337	0.5245
C	3.2757	-2.6377	-0.1273
C	4.3658	-1.869	-0.2753
C	4.8875	0.5356	0.0198
C	2.8016	1.8907	-0.2761
C	4.1498	1.6148	0.3194
C	-3.1614	-2.3402	-0.6531
C	2.9151	2.7057	-1.5545
H	-2.311	-0.737	-2.7438
H	-1.5693	-0.1983	-1.2671
H	-0.4105	3.0246	-1.5444
H	-0.7038	1.5848	-0.6439
H	-3.0337	1.3765	2.1153
H	-1.9147	0.8661	0.8812
H	-1.8963	-1.201	1.6271
H	-0.859	-2.2281	2.5767
H	-4.5133	-1.0083	-1.5879
H	-3.7928	-0.3882	-0.0919
H	-3.8205	1.2536	-2.846
H	-2.826	3.2695	-2.2031
H	1.5903	-3.1629	-1.2997
H	1.8169	-1.4307	-1.1855
H	-1.3824	4.4857	0.0789
H	-2.0384	3.6789	2.2252
H	-0.8358	1.795	3.6385
H	3.5528	-0.2821	-1.4992
H	5.2385	-0.6044	-1.7166
H	0.071	-0.3905	3.8169
H	0.1702	-0.4088	0.2972
H	0.8333	-3.2545	1.1027
H	3.4136	-3.5908	0.3825
H	5.2993	-2.2571	0.1313
H	5.8628	0.4282	0.4887
H	2.2272	0.9773	-0.4536
H	2.2161	2.4583	0.458
H	4.5497	2.3472	1.0155
H	1.9216	2.9259	-1.9551
H	3.4225	3.6591	-1.3723
H	3.474	2.1652	-2.3257
H	-3.4626	-3.6887	0.7199
