22
Dioxin (C12H4Cl4O2)
Cl	5.0379	1.6173	0
Cl	5.0378	-1.6174	0.0004
Cl	-5.0376	1.6176	0.0004
Cl	-5.0379	-1.6174	0
O	-0.0001	1.4269	-0.0002
O	-0.0001	-1.4269	-0.0002
C	1.1616	0.6971	-0.0002
C	-1.1617	0.697	-0.0001
C	1.1616	-0.6971	-0.0001
C	-1.1616	-0.697	-0.0002
C	2.3668	1.3984	-0.0002
C	-2.3668	1.3984	0.0001
C	2.3668	-1.3984	0.0001
C	-2.3668	-1.3985	-0.0001
C	3.5734	-0.698	0.0002
C	-3.5734	-0.6981	0
C	-3.5734	0.698	0.0001
C	3.5734	0.698	0
H	2.3559	2.4859	-0.0002
H	-2.3558	2.4858	0.0002
H	2.356	-2.4858	0.0001
H	-2.3559	-2.4859	-0.0003
