78
Dodecacene (C50H28)
C	0	0.7043	0.0001
C	0	-0.7039	0.0004
C	2.4517	0.7044	-0.0001
C	2.4517	-0.7038	0.001
C	-2.4517	0.7042	0
C	-2.4517	-0.704	-0.0005
C	4.9035	0.7043	-0.0003
C	4.9035	-0.7039	0.0013
C	-4.9034	0.704	-0.0001
C	-4.9034	-0.7042	-0.0014
C	-1.2259	1.3911	0
C	-1.2259	-1.3909	-0.0001
C	1.2258	1.3912	-0.0003
C	1.2259	-1.3908	0.0011
C	7.3552	0.7043	-0.0006
C	7.3552	-0.7039	0.0015
C	-7.3552	0.704	0.0002
C	-7.3552	-0.7043	-0.0021
C	3.6776	1.3912	-0.0008
C	3.6776	-1.3907	0.002
C	-3.6776	1.391	0.0002
C	-3.6776	-1.391	-0.0013
C	6.1294	1.3912	-0.0014
C	6.1293	-1.3907	0.0023
C	-6.1293	1.3909	0.0008
C	-6.1293	-1.391	-0.0026
C	9.807	0.7044	-0.0011
C	9.807	-0.7042	0.0016
C	-9.807	0.7042	0.0009
C	-9.807	-0.7045	-0.0022
C	8.5812	1.3911	-0.002
C	8.581	-1.3909	0.0028
C	-8.581	1.3908	0.0019
C	-8.581	-1.3912	-0.0035
C	11.0324	1.3923	-0.003
C	11.0323	-1.3924	0.003
C	-11.0323	1.3922	0.0032
C	-11.0323	-1.3925	-0.0037
C	12.258	0.7057	-0.0019
C	12.2578	-0.706	0.0013
C	-12.2579	0.7057	0.0022
C	-12.258	-0.7059	-0.0016
C	13.4835	1.3926	-0.0039
C	13.4831	-1.3933	0.003
C	-13.4832	1.3929	0.0049
C	-13.4834	-1.3929	-0.0031
C	14.6916	0.695	-0.0022
C	14.6913	-0.6963	0.0013
C	-14.6915	0.6957	0.0035
C	-14.6916	-0.6955	-0.0006
H	-1.226	2.4813	0
H	-1.2258	-2.4811	-0.0001
H	1.2258	2.4814	-0.0008
H	1.2259	-2.481	0.0016
H	3.6776	2.4814	-0.0019
H	3.6776	-2.4809	0.003
H	-3.6777	2.4812	0.0009
H	-3.6775	-2.4811	-0.0019
H	6.1293	2.4814	-0.0029
H	6.1293	-2.4809	0.0037
H	-6.1293	2.481	0.0022
H	-6.1292	-2.4812	-0.0038
H	8.581	2.4813	-0.0038
H	8.5808	-2.481	0.0047
H	-8.5808	2.481	0.004
H	-8.5808	-2.4814	-0.0055
H	11.0323	2.4825	-0.0052
H	11.0319	-2.4825	0.0054
H	-11.0321	2.4824	0.0059
H	-11.0321	-2.4826	-0.0063
H	13.5072	2.4804	-0.0065
H	13.5064	-2.4811	0.0057
H	-13.5068	2.4807	0.008
H	-13.5071	-2.4807	-0.0062
H	15.6319	1.2385	-0.0036
H	15.6314	-1.2401	0.0026
H	-15.6317	1.2394	0.0056
H	-15.6318	-1.2392	-0.0018

