183
Methyl-cyclodextrin (C54H94O35) The 3D optimized structure was obtained using the UFF method in Avogadro2.
O          2.60835        0.63997        0.03409
O          2.65591        0.06908       -6.64541
O          4.41796        0.35112        3.88348
O          6.26676        1.50900       -6.51509
O          1.92176        1.27247       -4.44161
O          1.52799       -0.38137        1.93890
O          8.59619       -2.75532        3.79402
O          5.38814       -0.62425       -6.56287
O          6.91457        0.37053       -2.00383
O          6.04303       -2.37342        5.32914
O          6.52042       -0.77567       -4.00136
O          3.72651       -1.62188        3.10946
O          6.98253       -0.70075        5.41373
O          5.52362       -2.13189        1.02517
O          1.94959       -2.75101       -1.69183
O          2.46214        0.85466       -9.13617
O          3.57067        2.99227        3.48729
O          2.56972       -3.11415       -4.69278
O          1.79383        3.28392        1.27378
O          4.24776        2.69037       -4.62305
O          9.64198       -0.18147        2.80647
O          4.83515        2.18727       -8.98928
O          6.57864       -0.37475        1.39875
O          3.11326        0.05534       -3.30414
O          6.13324       -4.16295        2.18514
O          4.15115        2.11489        1.15491
O          6.84359        2.68351       -0.36096
O          3.57701       -4.10598        3.29992
O          1.76750        3.97547       -3.16579
O          6.19628       -3.14673       -7.51526
O         -0.71011       -0.83324        3.61849
O          9.48475        1.18660       -5.04614
O          7.13814       -3.04135        8.34258
O          7.94409       -3.99847        0.37990
O          5.66044       -0.33621        8.38500
C          2.20581        0.14560       -1.30434
C          3.16432       -0.85918       -7.59636
C          2.89759        0.63341        3.94775
C          6.43492        1.46005       -5.09368
C          2.85426       -1.73426       -2.10398
C          8.78023       -1.89927        4.76338
C          3.57182        0.02906       -8.80944
C          2.49934        2.06840        3.42776
C          3.03255       -1.87439       -4.19018
C          1.65712        2.10134        2.04058
C          5.20818        1.78727       -4.09646
C          8.61040       -0.27204        3.77248
C          4.85351        0.87532       -8.43859
C          2.30438       -0.23941       -5.31423
C          1.60635        0.79806        1.12507
C          5.17901        0.74969       -6.91704
C          7.45468       -0.03012       -0.67838
C          6.99576        0.01234        2.89644
C          1.74127        1.61242       -2.69200
C          3.95937       -1.92265        4.66613
C          5.69627       -0.63409        3.81963
C          4.45192       -1.55091       -7.10582
C          1.64833       -0.26793        3.38138
C          4.56542        0.61456       -3.19737
C          5.89152       -0.30543       -2.82042
C          7.28380        0.22098       -4.68766
C          7.58078       -2.71944        5.96905
C          6.86394        1.53018        0.43367
C          4.50378       -3.47280        4.14913
C          7.33966       -2.24028        3.72850
C          6.12030       -3.57714        3.47519
C          5.14156        1.24960        1.67377
C          4.46500       -0.98967        1.86008
C          6.84728       -1.89957       -0.14037
C          5.16859       -0.62584        6.02627
C          2.27796        2.99733       -2.30002
C          5.13942       -2.46715       -8.13627
C          0.28387        0.04906        4.06751
C          8.68075        0.54501       -4.08786
C          7.89796       -2.30693        7.42146
C          8.15532       -2.62704        0.21879
C          4.91740       -1.09169        7.46714
C          2.20316       -3.15568       -0.36695
C          2.30737        0.96861      -10.53395
C          3.75857        3.50421        4.78998
C          3.43690       -4.15356       -4.29583
C          1.06803        4.36018        1.83091
C          4.72373        4.02146       -4.61585
C         10.75560        0.50864        3.32421
C          4.11834        3.11847       -8.20375
C          5.24755       -0.17287       -0.10381
C          1.18793       -0.60086       -3.31382
C          6.09762       -5.57673        2.22776
C          4.62684        3.44414        0.93720
H          1.19624       -0.14573       -0.99625
H          2.37066       -1.57673       -7.89925
H          2.73460        0.66132        5.04608
H          7.09804        2.34450       -4.97790
H          3.83602       -2.12487       -1.84314
H          9.81455       -2.00452        5.15417
H          3.83701       -0.64210       -9.66190
H          1.71365        2.44123        4.13196
H          4.13383       -1.78507       -4.31779
H          0.60186        2.07428        2.37761
H          5.79745        2.31044       -3.29214
H          8.68892        0.54618        4.53499
H          5.72706        0.37567       -8.90830
H          1.29756       -0.61117       -5.62291
H          0.61452        0.92329        0.63164
H          4.37072        1.21926       -6.38013
H          8.55432       -0.01912       -0.82467
H          7.21072        1.10846        2.92465
H          0.65262        1.78491       -2.51902
H          2.98459       -2.05184        5.17403
H          5.92729        0.41657        4.19800
H          4.15392       -2.24837       -6.33452
H          1.68363       -1.30424        3.73534
H          4.33180        1.24162       -2.37449
H          5.57237       -1.20414       -2.34175
H          7.59448       -0.27648       -5.63260
H          7.77511       -3.81500        5.94033
H          7.74247        1.67942        1.09094
H          4.53693       -4.09269        5.08098
H          7.29989       -2.08980        2.65852
H          6.55186       -4.34295        4.16532
H          5.38145        1.79424        2.59923
H          3.57715       -1.04361        1.23435
H          6.57091       -2.45404       -1.05694
H          4.82031        0.43092        6.08526
H          1.98774        3.22395       -1.25179
H          3.37159        3.07864       -2.30579
H          4.39458       -3.20595       -8.50928
H          5.54516       -1.88900       -8.99021
H          0.40021       -0.10196        5.16306
H         -0.09787        1.08117        4.00232
H          8.65638        1.16654       -3.16995
H          9.18464       -0.40733       -3.81838
H          8.97740       -2.50458        7.61300
H          7.77940       -1.22412        7.60226
H          8.85252       -2.48699       -0.63776
H          8.65766       -2.18320        1.09679
H          3.83012       -0.99517        7.69131
H          5.11983       -2.16580        7.59283
H          7.69616        2.69214       -0.86831
H          2.74489       -4.23003        3.82663
H          1.51705       -3.99287       -0.12522
H          3.23547       -3.55307       -0.24215
H          1.97539       -2.34155        0.34400
H          1.50119        1.70216      -10.73855
H          3.23181        1.35611      -11.01646
H          1.99441       -0.00245      -10.97689
H          4.67708        4.12592        4.78847
H          2.91379        4.16419        5.08408
H          3.92264        2.69561        5.53333
H          2.98075       -5.11952       -4.59388
H          4.41798       -4.07883       -4.81327
H          3.56895       -4.19305       -3.19373
H         -0.02701        4.19183        1.74049
H          1.36590        4.55960        2.88266
H          1.30875        5.27600        1.25313
H          3.93917        4.67188       -5.05349
H          4.90621        4.38631       -3.58163
H          5.62820        4.13861       -5.24850
H         11.12527        0.04237        4.26426
H         11.57958        0.44736        2.58419
H         10.51787        1.58582        3.46724
H          3.21872        2.69315       -7.70972
H          4.79241        3.57980       -7.45619
H          3.74717        3.92309       -8.87061
H          4.96831        0.77738       -0.57633
H          4.96831        0.77738       -0.57633
H          4.61647       -0.94543       -0.50733
H          0.60738       -1.09657       -2.51379
H          0.34146        0.02552       -3.70909
H          0.87020       -1.53021       -3.85374
H          0.86837        4.22329       -2.82528
H          6.57767       -3.75383       -8.20149
H         -1.02447       -0.48201        2.74469
H          7.08278       -5.98044        2.54626
H          5.28100       -5.95849        2.87812
H          5.89206       -5.95208        1.20434
H          4.66935        3.65050       -0.15147
H          5.59183        3.68004        1.44022
H          3.94029        4.19223        1.36951
H          9.41001        2.16503       -4.89522
H          7.54462       -3.94548        8.39992
H          8.82368       -4.38856        0.62278
H          5.16759        0.51412        8.52521
