135
Oxytocin (C43H66N12O12S2) (The 3D optimized structure was obtained using the UFF method in Avogadro.)
S          7.71648       -0.71993       -3.03759
S          7.54822        0.66295       -1.39234
O          6.69942       -1.43606       -8.26211
O          5.32343       -3.40644       -3.76132
O          5.42330       -6.51936       -8.68117
O          2.41862       -0.39348       -6.28211
O          4.15312        6.90334       -5.02097
O          1.93297        3.54689       -7.40989
O          6.65589        6.33994       -0.98832
O          5.50449        3.34006       -8.08125
O          8.29811        3.68812       -0.74803
O          4.39561       -3.80449      -13.28401
O         -0.68455        1.18005       -3.64600
O          7.01463       12.28029       -2.57355
N          6.69270       -3.55082       -5.51809
N          5.25939       -3.12225       -8.30916
N          4.20369       -1.07539       -5.17397
N          4.50407       -5.39172      -10.34805
N          3.30291        1.79535       -7.51247
N          5.93106        5.81124       -3.01241
N          3.40457        4.85102       -5.42015
N          9.18329        4.71959       -2.53393
N          9.78773        1.95627       -3.41889
N          7.18761        2.05486       -8.75276
N          5.96512       -3.22559      -11.81378
N          0.64045        1.86674       -1.99224
C          7.33572       -3.09870       -6.74386
C          8.06443       -4.34540       -7.26932
C          8.41767       -5.05710       -5.98523
C          7.13880       -4.89015       -5.16808
C          6.39136       -2.52480       -7.80678
C          5.85966       -2.83106       -4.70028
C          5.60525       -1.32719       -4.83768
C          4.70001       -4.41814       -7.93038
C          3.32161       -4.29959       -7.21232
C          5.92393       -0.66087       -3.47922
C          2.03510       -3.94621       -7.99559
C          4.86294       -5.48715       -9.02581
C          3.62657       -0.27543       -6.14684
C          4.26729        0.72998       -7.14197
C          6.30920        3.99793       -4.73941
C          5.84542        5.42340       -4.43636
C          1.48290       -5.15145       -8.77877
C          0.93965       -3.51105       -7.00651
C          3.17058        3.38240       -5.43009
C          6.28099        3.06083       -3.50679
C          5.68687        1.27446       -6.91019
C          4.41312        5.70728       -4.97895
C          2.79550        2.89451       -6.83686
C          7.67897        3.96989       -5.43856
C          1.98018        3.16458       -4.45424
C          8.51805        6.01711       -2.34886
C          6.97875        6.02058       -2.12566
C          3.85686       -4.29005      -11.03787
C          5.00275        2.85152       -2.67379
C          1.51748        1.71116       -4.31597
C          8.93571        7.01474       -3.45447
C          9.32803        1.10993       -1.16990
C          9.81428        2.32519       -2.00213
C          6.11659        2.29012       -7.95676
C          9.05512        3.63355       -1.70799
C          8.42339        8.41600       -3.21088
C          4.75845       -3.75680      -12.11814
C          0.41775        1.57400       -3.29515
C          7.54681        9.02061       -4.12830
C          8.82461        9.13577       -2.07201
C          7.07630       10.31820       -3.90712
C          8.35327       10.43353       -1.85343
C          7.47625       11.02903       -2.77114
H          8.09584       -2.33407       -6.46120
H          7.37241       -5.01434       -7.81366
H          8.91763       -4.12496       -7.94555
H          8.76853       -6.10507       -6.09337
H          9.22218       -4.46136       -5.49494
H          7.40720       -4.98616       -4.09293
H          6.35538       -5.63484       -5.41737
H          6.27101       -0.91587       -5.57953
H          4.75109       -2.56693       -9.00433
H          5.29970       -4.80346       -7.10381
H          3.12123       -5.24147       -6.65268
H          3.48097       -3.51025       -6.44476
H          5.59617        0.37363       -3.57168
H          5.32257       -1.12329       -2.66704
H          2.23187       -3.08096       -8.65975
H          3.53502       -1.60198       -4.58751
H          4.36795        0.11719       -8.06757
H          5.71333        3.67061       -5.57851
H          6.45811        6.11904       -5.04788
H          1.21987       -5.97778       -8.08335
H          0.56796       -4.85806       -9.33637
H          2.19336       -5.56639       -9.50027
H          1.26914       -2.63417       -6.41575
H          0.01585       -3.22364       -7.55305
H          0.69472       -4.33214       -6.29802
H          3.98899        2.77663       -5.08103
H          6.68615        2.09229       -3.80897
H          6.97139        3.48851       -2.80712
H          4.72614       -6.20355      -10.94688
H          2.91912        1.67309       -8.46456
H          5.74792        1.65895       -5.89440
H          6.42953        0.48336       -6.96675
H          5.00475        5.98541       -2.58803
H          2.56904        5.36384       -5.74945
H          7.95045        2.93354       -5.73040
H          7.65424        4.57895       -6.36886
H          8.47165        4.37178       -4.82307
H          2.29042        3.54294       -3.45745
H          1.10662        3.77256       -4.78110
H          8.95470        6.40191       -1.39911
H          2.91756       -4.66464      -11.49979
H          3.56259       -3.47606      -10.37541
H          5.26700        2.31238       -1.74215
H          4.52739        3.79957       -2.36898
H          4.26230        2.19910       -3.15080
H          1.12851        1.37969       -5.29965
H          2.36304        1.06244       -4.00761
H         10.04513        7.05981       -3.51257
H          8.57560        6.64331       -4.43274
H          9.95519        0.21877       -1.38536
H          9.47647        1.32025       -0.08956
H         10.88034        2.50721       -1.74393
H          9.85412        4.64425       -3.30904
H         10.31846        2.63678       -4.00558
H          8.81706        1.87028       -3.77201
H          7.73310        1.18472       -8.67334
H          7.47673        2.75103       -9.45588
H          7.22513        8.49046       -5.01556
H          9.50501        8.69610       -1.35414
H          6.29248       -3.18035      -10.83906
H          6.57838       -2.86132      -12.55780
H          1.56627        2.18553       -1.67177
H         -0.11440        1.76536       -1.29772
H          6.40064       10.77196       -4.62123
H          8.67189       10.97519       -0.97172
H          7.26818       12.80642       -1.80174
