42

S          2.68260       -1.19190       -1.70480
O          1.46530        2.71520        0.79740
O          3.24110        1.80580        1.89970
O         -1.65540       -2.31450        1.13310
N          2.51490       -0.65820        0.97480
N          0.00540       -1.79080       -0.40040
C          2.57390       -1.79600        0.02210
C          1.14410       -2.19470        0.42940
C          2.08090        0.52440        0.20710
C          1.37630       -1.30890        1.66460
C          2.85660        0.54370       -1.12610
C          2.21480        1.47940       -2.15320
C          4.35570        0.85060       -0.98950
C          2.35030        1.72460        1.06710
C         -1.31620       -1.88800        0.03220
C         -2.29480       -1.40760       -1.02150
C         -3.14510       -0.25240       -0.56310
C         -4.36720       -0.49170        0.06520
C         -2.71040        1.05710       -0.76690
C         -5.15470        0.57860        0.48970
C         -3.49780        2.12740       -0.34250
C         -4.72010        1.88810        0.28570
H          3.33640       -2.53940        0.28090
H          1.05970       -3.26180        0.67260
H          0.99890        0.51240        0.01350
H          0.55840       -0.64880        1.97450
H          1.68790       -1.87650        2.55080
H          1.14750        1.26790       -2.28760
H          2.30300        2.52490       -1.83780
H          2.69990        1.39650       -3.13300
H          4.51410        1.88600       -0.66700
H          4.85470        0.20240       -0.26050
H          4.87590        0.73590       -1.94830
H          0.18150       -1.42740       -1.33380
H          1.62490        3.50970        1.35010
H         -2.93220       -2.26080       -1.28730
H         -1.78050       -1.13260       -1.95030
H         -4.71610       -1.50750        0.23130
H         -1.75840        1.25570       -1.25230
H         -6.10610        0.39220        0.97930
H         -3.15890        3.14710       -0.50030
H         -5.33290        2.72150        0.61650
