72
Reichardt's dye (C41H29NO)
O	-4.3608	0.0059	0.0007
N	1.1183	-0.0001	-0.0005
C	1.8016	-0.0103	-1.1742
C	1.8004	0.0089	1.1738
C	-0.2833	0.0011	-0.0012
C	3.8853	-0.0026	0.001
C	3.1889	-0.0119	-1.2039
C	3.1876	0.0079	1.205
C	-0.9822	-1.206	0.0085
C	-0.9794	1.2099	-0.0101
C	1.0227	-0.0208	-2.3916
C	1.0201	0.0205	2.3904
C	-2.3815	-1.2131	0.0094
C	-2.3742	1.2116	-0.0091
C	-3.0731	0.0045	0.0006
C	5.3318	-0.0036	0.0016
C	-3.0442	-2.4993	0.0191
C	-3.0386	2.5079	-0.019
C	0.6449	-1.2337	-2.9695
C	0.6468	1.1821	-2.9911
C	0.6438	1.234	2.9681
C	0.6414	-1.1819	2.9891
C	6.0288	-1.212	0.0114
C	6.0303	1.2038	-0.0077
C	-3.3629	-3.1106	1.2317
C	-3.3645	-3.1278	-1.1841
C	-3.353	3.1102	-1.2316
C	-3.3514	3.1293	1.1843
C	-0.1071	-1.2437	-4.1444
C	-0.1052	1.1723	-4.1658
C	-0.1095	1.245	4.1421
C	-0.112	-1.1708	4.1631
C	-0.482	-0.0407	-4.7425
C	-0.4873	0.0426	4.7395
C	7.4238	-1.213	0.012
C	7.4252	1.203	-0.0074
C	-4.0018	-4.3505	1.2411
C	-4.0036	-4.3677	-1.1749
C	-3.9893	4.3515	-1.2411
C	-3.9878	4.3706	1.1748
C	8.1219	-0.0055	0.0025
C	-4.3222	-4.979	0.0378
C	-4.3066	4.9817	-0.0379
H	3.7212	-0.0202	-2.1522
H	3.7189	0.0154	2.1539
H	-0.428	-2.1433	0.0156
H	-0.4247	2.1466	-0.0175
H	0.9302	-2.1808	-2.5174
H	0.9336	2.1367	-2.5561
H	0.9314	2.1806	2.5167
H	0.9269	-2.137	2.5542
H	5.5001	-2.1624	0.0188
H	5.5028	2.1548	-0.0154
H	-3.1193	-2.6349	2.1789
H	-3.1221	-2.6657	-2.1384
H	-3.111	2.632	-2.1776
H	-3.1082	2.6662	2.1374
H	-0.4012	-2.1881	-4.5929
H	-0.3979	2.109	-4.6311
H	-0.4025	2.1898	4.5903
H	-0.4069	-2.1071	4.6279
H	-1.0682	-0.0483	-5.6568
H	-1.0745	0.0512	5.6531
H	7.9663	-2.1538	0.0197
H	7.969	2.1431	-0.0148
H	-4.2496	-4.8267	2.1852
H	-4.2528	-4.8573	-2.1118
H	-4.2373	4.8275	-2.1853
H	-4.2347	4.8615	2.1116
H	9.2079	-0.0062	0.0029
H	-4.8196	-5.9444	0.045
H	-4.8019	5.9482	-0.0452
