113
Taxol (C47H51NO14)  The 3D optimized structure was obtained using the UFF method in Avogadro.
O         -3.91920        3.71735       -2.32450
C         -3.97101        3.41276       -0.94319
C         -2.94773        2.29555       -1.09584
C         -3.20463        2.52813       -2.58489
C         -4.14805        1.53529       -3.28417
C         -3.93692        0.08036       -2.81513
C         -4.20284       -0.08407       -1.27380
C         -3.10770        0.82307       -0.50197
C         -3.12035        0.82000        1.10266
C         -2.14543       -0.19346        1.89297
C         -0.64134        0.19530        1.56342
C          0.19458       -0.86443        0.81075
C         -0.67176       -1.54302       -0.23517
C         -1.94326       -1.94085        0.12581
C         -2.41890       -1.72398        1.60093
C         -4.14880       -1.61280       -0.96374
C         -2.89884       -2.46712       -0.93287
O         -1.73475        2.87639       -0.71597
C         -0.45859        2.70965       -1.17090
O          0.41522        3.41144       -0.68816
O         -4.74170       -0.79522       -3.57355
C         -5.66805        0.36231       -0.92811
O         -2.79523        2.08855        1.57348
C         -3.59277        2.92276        2.29701
O         -4.73085        2.59088        2.60039
O         -2.31484        0.03770        3.27732
O          1.31226       -0.25460        0.25982
C          2.61170       -0.54828        0.53239
O          2.90020       -1.38769        1.37427
C         -0.13619       -1.71763       -1.64787
C         -1.68517       -2.70469        2.58130
C         -3.91495       -2.07482        1.91081
O         -5.20206       -2.20651       -0.75144
O         -3.21692       -3.77839       -0.60791
C         -3.01813       -4.92999       -1.30987
O         -3.42321       -5.97081       -0.81810
C         -0.05100        1.72781       -2.23254
C         -3.07457        4.24890        2.71006
C         -3.88025        5.13991        3.44445
C         -3.38477        6.38994        3.82785
C         -2.08385        6.76382        3.48390
C         -1.27524        5.88808        2.75595
C         -1.76535        4.63685        2.37004
C          3.69295        0.18176       -0.23933
O          3.49037        0.01257       -1.62056
C         -2.32678       -5.02122       -2.64800
C          5.14171       -0.19983        0.18766
N          5.42187       -1.60915       -0.07860
C          5.73885       -2.51142        0.90025
O          5.80429       -2.13678        2.06380
C          6.18651        0.66585       -0.50085
C          6.98779        1.53513        0.26465
C          7.95661        2.33517       -0.34860
C          8.14099        2.27715       -1.73109
C          7.35788        1.41758       -2.50330
C          6.38720        0.61553       -1.89593
C          6.00958       -3.95873        0.60526
C          6.33490       -4.82670        1.67107
C          6.59077       -6.18155        1.44326
C          6.52727       -6.69820        0.15028
C          6.20774       -5.86062       -0.91765
C          5.95031       -4.50328       -0.69878
H         -2.28225        2.68934       -3.17438
H         -2.13885        0.41487       -0.80834
H         -4.99341        3.12708       -0.66307
H         -3.61811        4.26302       -0.31747
H         -4.01289        1.63528       -4.38270
H         -5.20358        1.81618       -3.10480
H         -2.88478       -0.19659       -3.03583
H         -4.16097        0.62878        1.40310
H         -0.08064        0.47531        2.48246
H         -0.63563        1.11772        0.95519
H          0.53355       -1.63170        1.50202
H         -2.49266       -2.40929       -1.94576
H         -5.66171       -0.42780       -3.62028
H         -6.41704       -0.23359       -1.49053
H         -5.92268        1.39566       -1.15960
H         -5.89576        0.21365        0.14522
H         -3.28334        0.07977        3.48619
H          0.90563       -1.36824       -1.77010
H         -0.75088       -1.16366       -2.38138
H         -0.13508       -2.79661       -1.90699
H         -0.60413       -2.67424        2.69200
H         -1.91771       -3.75505        2.29925
H         -2.03996       -2.55229        3.62398
H         -4.66119       -1.43213        1.43285
H         -4.14202       -1.96166        2.99225
H         -4.14524       -3.13034        1.65443
H         -0.88700        1.10783       -2.59322
H          0.72812        1.05490       -1.82995
H          0.37760        2.27760       -3.09617
H         -4.89220        4.87236        3.72189
H         -4.01063        7.06938        4.39201
H         -1.70247        7.73199        3.78161
H         -0.26710        6.17876        2.49016
H         -1.11902        3.97573        1.80718
H          3.55293        1.26134       -0.01359
H          3.41814       -0.96004       -1.80531
H         -1.96449       -4.06571       -3.05952
H         -3.02829       -5.45854       -3.38894
H         -1.44732       -5.69227       -2.55429
H          5.19658        0.00829        1.27944
H          5.37701       -1.91017       -1.05801
H          6.86474        1.59767        1.33866
H          8.56573        3.00053        0.24955
H          8.89216        2.89662       -2.20384
H          7.50411        1.37074       -3.57479
H          5.80263       -0.04476       -2.52089
H          6.39255       -4.46085        2.68857
H          6.83835       -6.83179        2.27248
H          6.72520       -7.74790       -0.02433
H          6.15831       -6.26434       -1.92090
H          5.70777       -3.91053       -1.56519
