34
Tetrakis (C72H60P4Pd) The 3D optimized structure was obtained using the UFF method in Avogadro.
P         -0.00896       -0.04392        1.37271
C         -1.64634       -0.25717        0.51720
C          0.60957        1.51876        0.57308
C          1.02448       -1.31171        0.49227
C         -1.85222       -1.17908       -0.52717
C         -0.14552        2.27383       -0.34618
C          1.79227       -1.02004       -0.65170
C         -2.72175        0.53774        0.94467
C          1.89849        1.95830        0.91491
C          1.02533       -2.62015        0.99837
C         -3.10790       -1.28919       -1.13250
C          0.38624        3.43974       -0.90623
C          2.54553       -2.02385       -1.26839
C         -3.97526        0.42333        0.33716
C          2.42631        3.12323        0.35134
C          1.78148       -3.61989        0.38000
C         -4.16791       -0.48850       -0.70223
C          1.67026        3.86419       -0.55874
C          2.54160       -3.32197       -0.75282
H         -1.05846       -1.81413       -0.88988
H         -1.13853        1.98098       -0.64573
H          1.81401       -0.03055       -1.08251
H         -2.58599        1.25010        1.74908
H          2.49685        1.39351        1.61884
H          0.43998       -2.86493        1.87587
H         -3.25882       -1.99649       -1.93817
H         -0.19872        4.01502       -1.61234
H          3.13235       -1.79502       -2.14869
H         -4.79739        1.04301        0.67208
H          3.42201        3.45132        0.62040
H          1.77768       -4.62602        0.77931
H         -5.13855       -0.57559       -1.17387
H          2.07904        4.76642       -0.99482
H          3.12604       -4.09678       -1.23201
