78
Tetraphenylporphyrin (C44H30N4)
N         -2.08470       -0.02300        0.10130
N          2.22720        0.02450       -0.11530
N         -0.03280        2.04190       -0.19020
N          0.01300       -2.04190       -0.18940
C         -2.85560        1.11910        0.03810
C         -2.82960       -1.18230        0.04000
C          2.63690        1.15810       -0.78010
C          2.66180       -1.09850       -0.78210
C         -2.49460        2.41860        0.08540
C         -2.43950       -2.47330        0.08910
C          2.36760        2.44310       -0.21920
C          2.42160       -2.39030       -0.22330
C         -1.04530        2.77220        0.18310
C         -0.98250       -2.79490        0.18470
C          1.09370        2.80500        0.05550
C          1.15640       -2.78040        0.05320
C         -4.22560        0.62410       -0.09190
C         -4.21040       -0.71860       -0.09060
C          3.34670        0.74640       -1.89140
C          3.36230       -0.66930       -1.89260
C         -3.50700        3.49350        0.02390
C         -3.42850       -3.56990        0.03140
C          3.47290        3.39700        0.03710
C          3.54860       -3.31990        0.02900
C         -0.67740        4.08810        0.72900
C         -0.58490       -4.10290        0.72840
C          0.64980        4.05620        0.62870
C          0.74120       -4.04190        0.62550
C         -3.89210        4.01890       -1.20940
C         -3.98580       -4.06890        1.20860
C         -4.07740        3.98260        1.19910
C         -3.80450       -4.10590       -1.20020
C          4.12910        3.38970        1.26790
C          3.95080       -4.21390       -0.96320
C          3.85670        4.30190       -0.95260
C          4.20670       -3.30030        1.25870
C         -4.84760        5.03340       -1.26770
C         -4.91930       -5.10390        1.15430
C         -5.03300        4.99710        1.14100
C         -4.73800       -5.14090       -1.25470
C          5.16930        4.28730        1.50890
C          5.01110       -5.08840       -0.72580
C          4.89690        5.19950       -0.71160
C          5.26720       -4.17480        1.49620
C         -5.41810        5.52250       -0.09240
C         -5.29550       -5.63990       -0.07740
C          5.55310        5.19220        0.51920
C          5.66950       -5.06880        0.50380
H         -1.08090       -0.01160        0.20170
H          1.71220        0.01810        0.75540
H         -5.11380        1.23040       -0.17400
H         -5.08480       -1.34480       -0.17150
H          3.82190        1.39550       -2.61430
H          3.85180       -1.30640       -2.61660
H         -1.30000        4.87410        1.11260
H         -1.18930       -4.90290        1.11200
H          1.29610        4.86420        0.93590
H          1.40570       -4.83580        0.93040
H         -3.45590        3.64850       -2.13400
H         -3.70340       -3.66140        2.17630
H         -3.78810        3.58300        2.16810
H         -3.37820       -3.72790       -2.12630
H          3.84160        2.69020        2.04910
H          3.44790       -4.24160       -1.92690
H          3.35500        4.32040       -1.91710
H          3.90500       -2.60900        2.04180
H         -5.14740        5.44270       -2.22800
H         -5.35340       -5.49240        2.07080
H         -5.47730        5.37780        2.05600
H         -5.03080       -5.55840       -2.21360
H          5.68030        4.28170        2.46720
H          5.32440       -5.78460       -1.49820
H          5.19580        5.90410       -1.48210
H          5.77980       -4.15970        2.45350
H         -6.16210        6.31240       -0.13770
H         -6.02240       -6.44570       -0.11970
H          6.36300        5.89100        0.70700
H          6.49510       -5.74970        0.68860
