39
Tetrodotoxin (C11H17N3O8)
O	-1.1413	-0.1307	1.5075
O	-1.7883	1.6687	0.0531
O	0.0816	2.331	-1.9833
O	-1.7929	-1.4606	-1.8543
O	1.3502	1.2098	1.878
O	-1.2663	2.0727	2.2878
O	1.2181	-2.9536	0.9542
O	-3.6406	-2.077	0.0802
N	2.1929	0.6363	-0.8409
N	2.9148	-1.3109	0.3476
N	4.3955	0.0182	-0.8657
C	0.8046	0.549	-0.4468
C	0.4938	-0.934	-0.1278
C	-0.9651	-1.0158	0.3873
C	-1.6004	0.8505	-1.1141
C	-0.1367	0.9744	-1.5993
C	-1.9513	-0.599	-0.7284
C	0.5182	1.4744	0.756
C	-0.9541	1.2574	1.1549
C	1.5383	-1.5629	0.8153
C	-3.4063	-0.7234	-0.2572
C	3.1353	-0.2745	-0.4042
H	0.5569	-1.5211	-1.0571
H	-1.1729	-2.0366	0.7252
H	-2.2758	1.2235	-1.8925
H	0.0362	0.3578	-2.4896
H	0.6815	2.5266	0.4915
H	1.4465	-1.1563	1.8257
H	2.4878	1.4547	-1.3654
H	-4.1065	-0.4473	-1.053
H	-3.624	-0.1082	0.6205
H	-0.534	2.5336	-2.7082
H	-1.8076	-2.3798	-1.5387
H	2.2683	1.3717	1.6026
H	-2.2009	1.9035	2.4945
H	1.9625	-3.3613	1.4284
H	-3.6616	-2.5899	-0.7453
H	4.5705	0.825	-1.4547
H	5.1894	-0.5663	-0.6278
