99
Veratridine (C36H51NO11)
O	0.4204	0.88	-1.1889
O	-2.0791	2.7284	-1.365
O	-2.3233	0.2453	-1.7922
O	2.2102	2.2262	-2.0066
O	-4.9377	1.0386	-1.6913
O	3.9725	-0.0003	-1.3548
O	-5.4699	2.9217	1.2634
O	-6.3247	0.4742	1.6614
O	4.4671	-1.8993	-2.5583
O	8.1841	1.0885	0.9265
O	9.3051	-1.382	1.5321
N	-5.3489	-1.9002	0.2356
C	-0.0407	0.7349	0.1835
C	1.239	0.4447	0.9973
C	-0.7145	2.0652	0.5785
C	-2.1021	2.0271	-0.1227
C	-2.3863	0.5145	-0.3834
C	2.1168	1.5198	0.332
C	-1.2053	-0.2459	0.2711
C	1.8434	1.159	-1.1447
C	-3.7696	0.0431	0.1623
C	0.1975	3.2586	0.2799
C	1.655	2.9635	0.6729
C	-4.9207	1.012	-0.2499
C	1.842	-0.9684	0.72
C	-3.1713	2.6581	0.7696
C	-4.5956	2.4751	0.2271
C	2.5682	-0.1317	-1.5587
C	1.1145	0.5768	2.5222
C	2.0579	-1.322	-0.7537
C	-6.3029	0.4318	0.2267
C	-4.072	-1.3987	-0.291
C	-6.4859	-1.0668	-0.2201
C	-7.4845	1.2752	-0.3072
C	-7.8218	-1.6637	0.2953
C	-5.5008	-3.3108	-0.1706
C	-6.7768	-3.9592	0.3774
C	-7.9875	-3.1378	-0.0611
C	4.7249	-1.0833	-1.6869
C	-6.719	-4.1344	1.8978
C	5.9379	-1.1586	-0.8339
C	6.4902	0.0114	-0.3544
C	6.4755	-2.3968	-0.5473
C	7.6296	-0.0597	0.4469
C	7.615	-2.468	0.254
C	8.192	-1.2994	0.7512
C	7.7154	1.5564	2.1896
C	10.5669	-1.3431	0.8684
H	-0.8988	2.0445	1.6597
H	3.1759	1.4303	0.5986
H	-1.4259	-0.4709	1.3209
H	-0.9849	-1.1816	-0.2508
H	-3.7111	0.0368	1.2601
H	0.1738	3.5129	-0.7855
H	-0.16	4.1494	0.8091
H	1.785	3.1451	1.7457
H	2.3092	3.6878	0.172
H	1.2071	-1.7408	1.1724
H	2.8148	-1.0369	1.2264
H	-3.1166	2.2512	1.7885
H	-2.9828	3.735	0.8768
H	-4.7405	3.1651	-0.613
H	2.3934	-0.3177	-2.6269
H	2.0878	0.4203	3.0019
H	0.7594	1.5531	2.858
H	0.424	-0.1735	2.9226
H	1.0955	-1.6362	-1.1762
H	2.6976	-2.2077	-0.8076
H	-3.2682	-2.044	0.085
H	-4.0607	-1.4944	-1.383
H	-6.5336	-1.1054	-1.3173
H	-1.4472	2.2752	-1.9491
H	-2.1727	-0.7044	-1.9291
H	2.3471	1.8675	-2.899
H	-5.1151	0.1528	-2.0405
H	-7.3339	2.3468	-0.1538
H	-7.6396	1.1151	-1.3791
H	-8.4122	1.0389	0.2246
H	-7.9019	-1.5413	1.3819
H	-8.6692	-1.1249	-0.1424
H	-4.6405	-3.8919	0.1859
H	-5.5033	-3.391	-1.2666
H	-5.3698	2.3178	2.0189
H	-5.7468	-0.2322	1.9953
H	-6.8688	-4.9612	-0.0611
H	-8.9057	-3.5306	0.3908
H	-8.1092	-3.2285	-1.1482
H	-6.5919	-3.1837	2.4245
H	-7.6372	-4.6037	2.2666
H	-5.8805	-4.7821	2.1759
H	6.0739	0.9866	-0.5916
H	6.0328	-3.3135	-0.9252
H	8.047	-3.4372	0.4881
H	7.9101	0.8156	2.9715
H	6.6449	1.7805	2.1422
H	8.2546	2.4751	2.4362
H	10.6866	-0.4019	0.3226
H	10.6656	-2.1907	0.1828
H	11.3539	-1.4113	1.6245
