81
Alpha-Tocopherol (Vitamin E) (C29H50O2)
O	0.7439	-1.3977	-0.1232
O	5.3183	1.4276	-1.389
C	0.7693	-2.3982	0.9123
C	-0.6874	-2.5672	1.3684
C	1.6165	-1.9523	2.1151
C	-1.6525	-2.5615	0.1814
C	-4.1405	-2.6928	-0.4929
C	-3.0989	-2.7639	0.6462
C	3.0429	-1.6226	1.6984
C	-4.1332	-1.3155	-1.1902
C	1.2487	-3.7271	0.3089
C	3.0372	-0.7796	0.4579
C	-4.4179	-0.1428	-0.2451
C	1.9105	-0.7238	-0.371
C	-4.4293	1.222	-0.9482
C	-4.6441	2.4603	-0.0469
C	-3.8732	-3.8345	-1.4808
C	-3.6255	2.5062	1.1114
C	4.185	-0.0589	0.1006
C	1.923	0.0704	-1.5212
C	-2.1483	2.5701	0.7012
C	3.0658	0.793	-1.8615
C	-4.567	3.7209	-0.9179
C	4.1977	0.7256	-1.0529
C	-1.1393	2.5588	1.8561
C	0.3455	2.5408	1.4458
C	5.4159	-0.1114	0.9522
C	0.7053	0.1538	-2.3883
C	3.0817	1.6448	-3.0909
C	1.2834	2.471	2.6512
C	0.6667	3.7844	0.6131
H	-0.8061	-3.4779	1.9682
H	-0.9685	-1.7257	2.0161
H	1.6224	-2.716	2.9017
H	1.1755	-1.0446	2.5506
H	-1.3833	-3.349	-0.5264
H	-1.5813	-1.6035	-0.3401
H	-5.1319	-2.8536	-0.05
H	-3.3472	-2.0402	1.4304
H	-3.1764	-3.7475	1.1291
H	3.6077	-2.5429	1.5114
H	3.5216	-1.0968	2.5322
H	-4.9064	-1.3241	-1.9698
H	-3.1865	-1.1488	-1.7167
H	1.2003	-4.5402	1.0408
H	0.6638	-4.0136	-0.5705
H	2.2816	-3.6587	-0.0485
H	-3.6454	-0.1245	0.5268
H	-5.3791	-0.2983	0.2588
H	-3.4951	1.3333	-1.5134
H	-5.2274	1.2066	-1.7028
H	-5.6488	2.4037	0.3905
H	-2.9586	-3.6754	-2.0602
H	-4.6984	-3.9064	-2.1981
H	-3.7988	-4.7981	-0.9662
H	-3.8456	3.3902	1.725
H	-3.7818	1.65	1.7776
H	-1.9107	1.7245	0.0462
H	-1.9978	3.4798	0.1119
H	-5.3771	3.7245	-1.6554
H	-4.6722	4.6223	-0.3052
H	-3.6221	3.7871	-1.4664
H	-1.3301	3.4275	2.4994
H	-1.3357	1.6725	2.4735
H	0.5235	1.6547	0.8268
H	5.6503	-1.1416	1.2406
H	6.3076	0.2617	0.439
H	5.2736	0.4922	1.8547
H	0.4229	1.1985	-2.56
H	-0.1785	-0.3167	-1.948
H	0.8863	-0.3435	-3.3471
H	2.9701	2.6994	-2.8179
H	4.0179	1.514	-3.6457
H	2.2994	1.4	-3.8135
H	1.1648	3.3469	3.2979
H	2.3292	2.4224	2.3301
H	1.0758	1.5776	3.2493
H	0.3942	4.7036	1.1425
H	0.1454	3.7706	-0.3488
H	1.7384	3.8311	0.3891
H	5.1056	2.1425	-2.0092